21
XYZ file generated by Avogadro.
C     -3.61402    1.36195   -0.00253
C     -3.48323   -0.02217    0.00331
H      2.45177   -2.78487   -0.03378
C      2.12549   -1.74163    0.00191
H     -4.36727   -0.65579    0.00466
C     -2.21682   -0.60117    0.00687
H     -2.66096    3.24641   -0.01306
H     -2.14980   -1.68420    0.01160
C     -1.07885    0.21144    0.00455
O     -0.10195   -2.67164   -0.02453
H      2.50599   -1.28749    0.92010
C     -1.18582    1.62084   -0.00085
C      0.62678   -1.69073   -0.00728
O      0.22920   -0.35202    0.00960
C     -2.47743    2.17917   -0.00534
C      0.06182    2.46433   -0.00495
H     -4.60638    1.80843   -0.00573
H      2.51947   -1.22437   -0.87649
O     -0.11606    3.80369    0.00500
O      1.19253    2.00410   -0.01693
H     -1.01692    4.15745    0.02371